<?xml version="1.0" ?>
<routes>
  <vType accel="1.0" decel="4.5" id="standard_car" length="5.0" minGap="2.5" maxSpeed="25" sigma="0.5"/>
  <route id="E_W" edges="E02TL0 TL02W0"/>
  <route id="E_N" edges="E02TL0 TL02N0"/>
  <route id="E_S" edges="E02TL0 TL02S0"/>
  <route id="W_E" edges="W02TL0 TL02E0"/>
  <route id="W_N" edges="W02TL0 TL02N0"/>
  <route id="W_S" edges="W02TL0 TL02S0"/>
  <route id="N_E" edges="N02TL0 TL02E0"/>
  <route id="N_W" edges="N02TL0 TL02W0"/>
  <route id="N_S" edges="N02TL0 TL02S0"/>
  <route id="S_E" edges="S02TL0 TL02E0"/>
  <route id="S_W" edges="S02TL0 TL02W0"/>
  <route id="S_N" edges="S02TL0 TL02N0"/>
  <vehicle id="S_N_0" type="standard_car" route="S_N" depart="126.0" departLane="random" departSpeed="10"/>
  <vehicle id="S_E_1" type="standard_car" route="S_E" depart="142.0" departLane="random" departSpeed="10"/>
  <vehicle id="N_S_2" type="standard_car" route="N_S" depart="174.0" departLane="random" departSpeed="10"/>
  <vehicle id="W_E_3" type="standard_car" route="W_E" depart="179.0" departLane="random" departSpeed="10"/>
  <vehicle id="E_N_4" type="standard_car" route="E_N" depart="218.0" departLane="random" departSpeed="10"/>
  <vehicle id="N_S_5" type="standard_car" route="N_S" depart="221.0" departLane="random" departSpeed="10"/>
  <vehicle id="W_E_6" type="standard_car" route="W_E" depart="229.0" departLane="random" departSpeed="10"/>
  <vehicle id="E_W_7" type="standard_car" route="E_W" depart="237.0" departLane="random" departSpeed="10"/>
  <vehicle id="E_W_8" type="standard_car" route="E_W" depart="267.0" departLane="random" departSpeed="10"/>
  <vehicle id="E_W_9" type="standard_car" route="E_W" depart="289.0" departLane="random" departSpeed="10"/>
  <vehicle id="W_E_10" type="standard_car" route="W_E" depart="299.0" departLane="random" departSpeed="10"/>
  <vehicle id="S_N_11" type="standard_car" route="S_N" depart="309.0" departLane="random" departSpeed="10"/>
  <vehicle id="S_N_12" type="standard_car" route="S_N" depart="313.0" departLane="random" departSpeed="10"/>
  <vehicle id="E_W_13" type="standard_car" route="E_W" depart="317.0" departLane="random" departSpeed="10"/>
  <vehicle id="W_E_14" type="standard_car" route="W_E" depart="323.0" departLane="random" departSpeed="10"/>
  <vehicle id="N_S_15" type="standard_car" route="N_S" depart="347.0" departLane="random" departSpeed="10"/>
  <vehicle id="N_S_16" type="standard_car" route="N_S" depart="353.0" departLane="random" departSpeed="10"/>
  <vehicle id="S_E_17" type="standard_car" route="S_E" depart="356.0" departLane="random" departSpeed="10"/>
  <vehicle id="S_N_18" type="standard_car" route="S_N" depart="367.0" departLane="random" departSpeed="10"/>
  <vehicle id="E_W_19" type="standard_car" route="E_W" depart="379.0" departLane="random" departSpeed="10"/>
  <vehicle id="S_N_20" type="standard_car" route="S_N" depart="389.0" departLane="random" departSpeed="10"/>
  <vehicle id="E_W_21" type="standard_car" route="E_W" depart="396.0" departLane="random" departSpeed="10"/>
  <vehicle id="E_W_22" type="standard_car" route="E_W" depart="404.0" departLane="random" departSpeed="10"/>
  <vehicle id="N_S_23" type="standard_car" route="N_S" depart="417.0" departLane="random" departSpeed="10"/>
  <vehicle id="N_S_24" type="standard_car" route="N_S" depart="422.0" departLane="random" departSpeed="10"/>
  <vehicle id="S_N_25" type="standard_car" route="S_N" depart="436.0" departLane="random" departSpeed="10"/>
  <vehicle id="S_N_26" type="standard_car" route="S_N" depart="443.0" departLane="random" departSpeed="10"/>
  <vehicle id="W_S_27" type="standard_car" route="W_S" depart="445.0" departLane="random" departSpeed="10"/>
  <vehicle id="S_W_28" type="standard_car" route="S_W" depart="454.0" departLane="random" departSpeed="10"/>
  <vehicle id="N_S_29" type="standard_car" route="N_S" depart="455.0" departLane="random" departSpeed="10"/>
  <vehicle id="E_S_30" type="standard_car" route="E_S" depart="457.0" departLane="random" departSpeed="10"/>
  <vehicle id="N_S_31" type="standard_car" route="N_S" depart="458.0" departLane="random" departSpeed="10"/>
  <vehicle id="N_S_32" type="standard_car" route="N_S" depart="459.0" departLane="random" departSpeed="10"/>
  <vehicle id="S_N_33" type="standard_car" route="S_N" depart="463.0" departLane="random" departSpeed="10"/>
  <vehicle id="W_E_34" type="standard_car" route="W_E" depart="466.0" departLane="random" departSpeed="10"/>
  <vehicle id="S_N_35" type="standard_car" route="S_N" depart="468.0" departLane="random" departSpeed="10"/>
  <vehicle id="E_W_36" type="standard_car" route="E_W" depart="471.0" departLane="random" departSpeed="10"/>
  <vehicle id="E_W_37" type="standard_car" route="E_W" depart="478.0" departLane="random" departSpeed="10"/>
  <vehicle id="E_W_38" type="standard_car" route="E_W" depart="485.0" departLane="random" departSpeed="10"/>
  <vehicle id="E_W_39" type="standard_car" route="E_W" depart="488.0" departLane="random" departSpeed="10"/>
  <vehicle id="S_N_40" type="standard_car" route="S_N" depart="489.0" departLane="random" departSpeed="10"/>
  <vehicle id="S_E_41" type="standard_car" route="S_E" depart="492.0" departLane="random" departSpeed="10"/>
  <vehicle id="N_E_42" type="standard_car" route="N_E" depart="509.0" departLane="random" departSpeed="10"/>
  <vehicle id="N_S_43" type="standard_car" route="N_S" depart="517.0" departLane="random" departSpeed="10"/>
  <vehicle id="W_E_44" type="standard_car" route="W_E" depart="524.0" departLane="random" departSpeed="10"/>
  <vehicle id="N_W_45" type="standard_car" route="N_W" depart="531.0" departLane="random" departSpeed="10"/>
  <vehicle id="W_E_46" type="standard_car" route="W_E" depart="536.0" departLane="random" departSpeed="10"/>
  <vehicle id="N_W_47" type="standard_car" route="N_W" depart="548.0" departLane="random" departSpeed="10"/>
  <vehicle id="N_S_48" type="standard_car" route="N_S" depart="555.0" departLane="random" departSpeed="10"/>
  <vehicle id="S_N_49" type="standard_car" route="S_N" depart="561.0" departLane="random" departSpeed="10"/>
  <vehicle id="E_W_50" type="standard_car" route="E_W" depart="572.0" departLane="random" departSpeed="10"/>
  <vehicle id="W_N_51" type="standard_car" route="W_N" depart="575.0" departLane="random" departSpeed="10"/>
  <vehicle id="S_N_52" type="standard_car" route="S_N" depart="579.0" departLane="random" departSpeed="10"/>
  <vehicle id="N_S_53" type="standard_car" route="N_S" depart="585.0" departLane="random" departSpeed="10"/>
  <vehicle id="S_N_54" type="standard_car" route="S_N" depart="593.0" departLane="random" departSpeed="10"/>
  <vehicle id="E_N_55" type="standard_car" route="E_N" depart="598.0" departLane="random" departSpeed="10"/>
  <vehicle id="W_E_56" type="standard_car" route="W_E" depart="600.0" departLane="random" departSpeed="10"/>
  <vehicle id="N_W_57" type="standard_car" route="N_W" depart="606.0" departLane="random" departSpeed="10"/>
  <vehicle id="W_E_58" type="standard_car" route="W_E" depart="607.0" departLane="random" departSpeed="10"/>
  <vehicle id="W_E_59" type="standard_car" route="W_E" depart="610.0" departLane="random" departSpeed="10"/>
  <vehicle id="N_S_60" type="standard_car" route="N_S" depart="621.0" departLane="random" departSpeed="10"/>
  <vehicle id="W_E_61" type="standard_car" route="W_E" depart="631.0" departLane="random" departSpeed="10"/>
  <vehicle id="W_S_62" type="standard_car" route="W_S" depart="632.0" departLane="random" departSpeed="10"/>
  <vehicle id="S_N_63" type="standard_car" route="S_N" depart="632.0" departLane="random" departSpeed="10"/>
  <vehicle id="N_S_64" type="standard_car" route="N_S" depart="643.0" departLane="random" departSpeed="10"/>
  <vehicle id="E_W_65" type="standard_car" route="E_W" depart="644.0" departLane="random" departSpeed="10"/>
  <vehicle id="S_N_66" type="standard_car" route="S_N" depart="644.0" departLane="random" departSpeed="10"/>
  <vehicle id="N_S_67" type="standard_car" route="N_S" depart="655.0" departLane="random" departSpeed="10"/>
  <vehicle id="S_N_68" type="standard_car" route="S_N" depart="656.0" departLane="random" departSpeed="10"/>
  <vehicle id="N_S_69" type="standard_car" route="N_S" depart="662.0" departLane="random" departSpeed="10"/>
  <vehicle id="E_W_70" type="standard_car" route="E_W" depart="664.0" departLane="random" departSpeed="10"/>
  <vehicle id="S_N_71" type="standard_car" route="S_N" depart="665.0" departLane="random" departSpeed="10"/>
  <vehicle id="W_S_72" type="standard_car" route="W_S" depart="666.0" departLane="random" departSpeed="10"/>
  <vehicle id="N_S_73" type="standard_car" route="N_S" depart="674.0" departLane="random" departSpeed="10"/>
  <vehicle id="E_S_74" type="standard_car" route="E_S" depart="687.0" departLane="random" departSpeed="10"/>
  <vehicle id="S_N_75" type="standard_car" route="S_N" depart="693.0" departLane="random" departSpeed="10"/>
  <vehicle id="E_S_76" type="standard_car" route="E_S" depart="693.0" departLane="random" departSpeed="10"/>
  <vehicle id="N_S_77" type="standard_car" route="N_S" depart="695.0" departLane="random" departSpeed="10"/>
  <vehicle id="N_W_78" type="standard_car" route="N_W" depart="700.0" departLane="random" departSpeed="10"/>
  <vehicle id="S_W_79" type="standard_car" route="S_W" depart="724.0" departLane="random" departSpeed="10"/>
  <vehicle id="W_E_80" type="standard_car" route="W_E" depart="728.0" departLane="random" departSpeed="10"/>
  <vehicle id="E_W_81" type="standard_car" route="E_W" depart="733.0" departLane="random" departSpeed="10"/>
  <vehicle id="S_N_82" type="standard_car" route="S_N" depart="739.0" departLane="random" departSpeed="10"/>
  <vehicle id="W_E_83" type="standard_car" route="W_E" depart="740.0" departLane="random" departSpeed="10"/>
  <vehicle id="N_W_84" type="standard_car" route="N_W" depart="745.0" departLane="random" departSpeed="10"/>
  <vehicle id="N_S_85" type="standard_car" route="N_S" depart="750.0" departLane="random" departSpeed="10"/>
  <vehicle id="N_S_86" type="standard_car" route="N_S" depart="751.0" departLane="random" departSpeed="10"/>
  <vehicle id="E_W_87" type="standard_car" route="E_W" depart="754.0" departLane="random" departSpeed="10"/>
  <vehicle id="E_W_88" type="standard_car" route="E_W" depart="759.0" departLane="random" departSpeed="10"/>
  <vehicle id="S_W_89" type="standard_car" route="S_W" depart="768.0" departLane="random" departSpeed="10"/>
  <vehicle id="W_E_90" type="standard_car" route="W_E" depart="770.0" departLane="random" departSpeed="10"/>
  <vehicle id="S_W_91" type="standard_car" route="S_W" depart="773.0" departLane="random" departSpeed="10"/>
  <vehicle id="S_N_92" type="standard_car" route="S_N" depart="775.0" departLane="random" departSpeed="10"/>
  <vehicle id="E_W_93" type="standard_car" route="E_W" depart="785.0" departLane="random" departSpeed="10"/>
  <vehicle id="N_S_94" type="standard_car" route="N_S" depart="787.0" departLane="random" departSpeed="10"/>
  <vehicle id="N_S_95" type="standard_car" route="N_S" depart="793.0" departLane="random" departSpeed="10"/>
  <vehicle id="S_N_96" type="standard_car" route="S_N" depart="798.0" departLane="random" departSpeed="10"/>
  <vehicle id="S_N_97" type="standard_car" route="S_N" depart="800.0" departLane="random" departSpeed="10"/>
  <vehicle id="E_W_98" type="standard_car" route="E_W" depart="807.0" departLane="random" departSpeed="10"/>
  <vehicle id="E_W_99" type="standard_car" route="E_W" depart="808.0" departLane="random" departSpeed="10"/>
  <vehicle id="S_E_100" type="standard_car" route="S_E" depart="810.0" departLane="random" departSpeed="10"/>
  <vehicle id="N_S_101" type="standard_car" route="N_S" depart="835.0" departLane="random" departSpeed="10"/>
  <vehicle id="W_E_102" type="standard_car" route="W_E" depart="841.0" departLane="random" departSpeed="10"/>
  <vehicle id="E_W_103" type="standard_car" route="E_W" depart="843.0" departLane="random" departSpeed="10"/>
  <vehicle id="S_N_104" type="standard_car" route="S_N" depart="845.0" departLane="random" departSpeed="10"/>
  <vehicle id="E_W_105" type="standard_car" route="E_W" depart="849.0" departLane="random" departSpeed="10"/>
  <vehicle id="N_W_106" type="standard_car" route="N_W" depart="849.0" departLane="random" departSpeed="10"/>
  <vehicle id="W_E_107" type="standard_car" route="W_E" depart="850.0" departLane="random" departSpeed="10"/>
  <vehicle id="S_N_108" type="standard_car" route="S_N" depart="856.0" departLane="random" departSpeed="10"/>
  <vehicle id="W_E_109" type="standard_car" route="W_E" depart="859.0" departLane="random" departSpeed="10"/>
  <vehicle id="W_E_110" type="standard_car" route="W_E" depart="880.0" departLane="random" departSpeed="10"/>
  <vehicle id="S_N_111" type="standard_car" route="S_N" depart="890.0" departLane="random" departSpeed="10"/>
  <vehicle id="S_N_112" type="standard_car" route="S_N" depart="893.0" departLane="random" departSpeed="10"/>
  <vehicle id="E_W_113" type="standard_car" route="E_W" depart="905.0" departLane="random" departSpeed="10"/>
  <vehicle id="E_W_114" type="standard_car" route="E_W" depart="906.0" departLane="random" departSpeed="10"/>
  <vehicle id="E_W_115" type="standard_car" route="E_W" depart="907.0" departLane="random" departSpeed="10"/>
  <vehicle id="N_S_116" type="standard_car" route="N_S" depart="917.0" departLane="random" departSpeed="10"/>
  <vehicle id="N_S_117" type="standard_car" route="N_S" depart="928.0" departLane="random" departSpeed="10"/>
  <vehicle id="N_S_118" type="standard_car" route="N_S" depart="929.0" departLane="random" departSpeed="10"/>
  <vehicle id="N_S_119" type="standard_car" route="N_S" depart="932.0" departLane="random" departSpeed="10"/>
  <vehicle id="N_S_120" type="standard_car" route="N_S" depart="937.0" departLane="random" departSpeed="10"/>
  <vehicle id="W_E_121" type="standard_car" route="W_E" depart="948.0" departLane="random" departSpeed="10"/>
  <vehicle id="W_E_122" type="standard_car" route="W_E" depart="951.0" departLane="random" departSpeed="10"/>
  <vehicle id="W_E_123" type="standard_car" route="W_E" depart="956.0" departLane="random" departSpeed="10"/>
  <vehicle id="E_W_124" type="standard_car" route="E_W" depart="963.0" departLane="random" departSpeed="10"/>
  <vehicle id="W_E_125" type="standard_car" route="W_E" depart="964.0" departLane="random" departSpeed="10"/>
  <vehicle id="N_S_126" type="standard_car" route="N_S" depart="970.0" departLane="random" departSpeed="10"/>
  <vehicle id="N_S_127" type="standard_car" route="N_S" depart="971.0" departLane="random" departSpeed="10"/>
  <vehicle id="E_W_128" type="standard_car" route="E_W" depart="972.0" departLane="random" departSpeed="10"/>
  <vehicle id="E_W_129" type="standard_car" route="E_W" depart="974.0" departLane="random" departSpeed="10"/>
  <vehicle id="W_E_130" type="standard_car" route="W_E" depart="975.0" departLane="random" departSpeed="10"/>
  <vehicle id="E_W_131" type="standard_car" route="E_W" depart="977.0" departLane="random" departSpeed="10"/>
  <vehicle id="E_W_132" type="standard_car" route="E_W" depart="980.0" departLane="random" departSpeed="10"/>
  <vehicle id="N_E_133" type="standard_car" route="N_E" depart="987.0" departLane="random" departSpeed="10"/>
  <vehicle id="N_E_134" type="standard_car" route="N_E" depart="988.0" departLane="random" departSpeed="10"/>
  <vehicle id="N_S_135" type="standard_car" route="N_S" depart="992.0" departLane="random" departSpeed="10"/>
  <vehicle id="E_W_136" type="standard_car" route="E_W" depart="994.0" departLane="random" departSpeed="10"/>
  <vehicle id="S_W_137" type="standard_car" route="S_W" depart="1013.0" departLane="random" departSpeed="10"/>
  <vehicle id="N_S_138" type="standard_car" route="N_S" depart="1014.0" departLane="random" departSpeed="10"/>
  <vehicle id="N_W_139" type="standard_car" route="N_W" depart="1024.0" departLane="random" departSpeed="10"/>
  <vehicle id="S_N_140" type="standard_car" route="S_N" depart="1024.0" departLane="random" departSpeed="10"/>
  <vehicle id="E_W_141" type="standard_car" route="E_W" depart="1026.0" departLane="random" departSpeed="10"/>
  <vehicle id="N_S_142" type="standard_car" route="N_S" depart="1028.0" departLane="random" departSpeed="10"/>
  <vehicle id="N_W_143" type="standard_car" route="N_W" depart="1029.0" departLane="random" departSpeed="10"/>
  <vehicle id="N_S_144" type="standard_car" route="N_S" depart="1030.0" departLane="random" departSpeed="10"/>
  <vehicle id="W_E_145" type="standard_car" route="W_E" depart="1033.0" departLane="random" departSpeed="10"/>
  <vehicle id="N_W_146" type="standard_car" route="N_W" depart="1034.0" departLane="random" departSpeed="10"/>
  <vehicle id="E_W_147" type="standard_car" route="E_W" depart="1035.0" departLane="random" departSpeed="10"/>
  <vehicle id="E_W_148" type="standard_car" route="E_W" depart="1039.0" departLane="random" departSpeed="10"/>
  <vehicle id="S_N_149" type="standard_car" route="S_N" depart="1050.0" departLane="random" departSpeed="10"/>
  <vehicle id="N_S_150" type="standard_car" route="N_S" depart="1054.0" departLane="random" departSpeed="10"/>
  <vehicle id="N_S_151" type="standard_car" route="N_S" depart="1062.0" departLane="random" departSpeed="10"/>
  <vehicle id="E_W_152" type="standard_car" route="E_W" depart="1079.0" departLane="random" departSpeed="10"/>
  <vehicle id="N_S_153" type="standard_car" route="N_S" depart="1080.0" departLane="random" departSpeed="10"/>
  <vehicle id="N_E_154" type="standard_car" route="N_E" depart="1083.0" departLane="random" departSpeed="10"/>
  <vehicle id="N_S_155" type="standard_car" route="N_S" depart="1085.0" departLane="random" departSpeed="10"/>
  <vehicle id="E_W_156" type="standard_car" route="E_W" depart="1088.0" departLane="random" departSpeed="10"/>
  <vehicle id="E_S_157" type="standard_car" route="E_S" depart="1089.0" departLane="random" departSpeed="10"/>
  <vehicle id="E_S_158" type="standard_car" route="E_S" depart="1094.0" departLane="random" departSpeed="10"/>
  <vehicle id="E_N_159" type="standard_car" route="E_N" depart="1104.0" departLane="random" departSpeed="10"/>
  <vehicle id="W_E_160" type="standard_car" route="W_E" depart="1108.0" departLane="random" departSpeed="10"/>
  <vehicle id="E_W_161" type="standard_car" route="E_W" depart="1109.0" departLane="random" departSpeed="10"/>
  <vehicle id="W_N_162" type="standard_car" route="W_N" depart="1121.0" departLane="random" departSpeed="10"/>
  <vehicle id="W_E_163" type="standard_car" route="W_E" depart="1129.0" departLane="random" departSpeed="10"/>
  <vehicle id="N_E_164" type="standard_car" route="N_E" depart="1133.0" departLane="random" departSpeed="10"/>
  <vehicle id="E_W_165" type="standard_car" route="E_W" depart="1133.0" departLane="random" departSpeed="10"/>
  <vehicle id="E_S_166" type="standard_car" route="E_S" depart="1143.0" departLane="random" departSpeed="10"/>
  <vehicle id="N_S_167" type="standard_car" route="N_S" depart="1150.0" departLane="random" departSpeed="10"/>
  <vehicle id="N_S_168" type="standard_car" route="N_S" depart="1156.0" departLane="random" departSpeed="10"/>
  <vehicle id="N_W_169" type="standard_car" route="N_W" depart="1159.0" departLane="random" departSpeed="10"/>
  <vehicle id="S_N_170" type="standard_car" route="S_N" depart="1162.0" departLane="random" departSpeed="10"/>
  <vehicle id="N_S_171" type="standard_car" route="N_S" depart="1163.0" departLane="random" departSpeed="10"/>
  <vehicle id="N_S_172" type="standard_car" route="N_S" depart="1164.0" departLane="random" departSpeed="10"/>
  <vehicle id="S_N_173" type="standard_car" route="S_N" depart="1164.0" departLane="random" departSpeed="10"/>
  <vehicle id="N_W_174" type="standard_car" route="N_W" depart="1166.0" departLane="random" departSpeed="10"/>
  <vehicle id="N_S_175" type="standard_car" route="N_S" depart="1167.0" departLane="random" departSpeed="10"/>
  <vehicle id="N_W_176" type="standard_car" route="N_W" depart="1172.0" departLane="random" departSpeed="10"/>
  <vehicle id="S_N_177" type="standard_car" route="S_N" depart="1173.0" departLane="random" departSpeed="10"/>
  <vehicle id="E_W_178" type="standard_car" route="E_W" depart="1176.0" departLane="random" departSpeed="10"/>
  <vehicle id="W_S_179" type="standard_car" route="W_S" depart="1186.0" departLane="random" departSpeed="10"/>
  <vehicle id="E_W_180" type="standard_car" route="E_W" depart="1186.0" departLane="random" departSpeed="10"/>
  <vehicle id="W_E_181" type="standard_car" route="W_E" depart="1188.0" departLane="random" departSpeed="10"/>
  <vehicle id="N_W_182" type="standard_car" route="N_W" depart="1192.0" departLane="random" departSpeed="10"/>
  <vehicle id="S_N_183" type="standard_car" route="S_N" depart="1192.0" departLane="random" departSpeed="10"/>
  <vehicle id="S_N_184" type="standard_car" route="S_N" depart="1193.0" departLane="random" departSpeed="10"/>
  <vehicle id="N_S_185" type="standard_car" route="N_S" depart="1198.0" departLane="random" departSpeed="10"/>
  <vehicle id="E_W_186" type="standard_car" route="E_W" depart="1201.0" departLane="random" departSpeed="10"/>
  <vehicle id="W_E_187" type="standard_car" route="W_E" depart="1205.0" departLane="random" departSpeed="10"/>
  <vehicle id="S_N_188" type="standard_car" route="S_N" depart="1209.0" departLane="random" departSpeed="10"/>
  <vehicle id="E_W_189" type="standard_car" route="E_W" depart="1216.0" departLane="random" departSpeed="10"/>
  <vehicle id="W_E_190" type="standard_car" route="W_E" depart="1220.0" departLane="random" departSpeed="10"/>
  <vehicle id="E_W_191" type="standard_car" route="E_W" depart="1221.0" departLane="random" departSpeed="10"/>
  <vehicle id="E_W_192" type="standard_car" route="E_W" depart="1224.0" departLane="random" departSpeed="10"/>
  <vehicle id="S_N_193" type="standard_car" route="S_N" depart="1225.0" departLane="random" departSpeed="10"/>
  <vehicle id="S_N_194" type="standard_car" route="S_N" depart="1230.0" departLane="random" departSpeed="10"/>
  <vehicle id="W_N_195" type="standard_car" route="W_N" depart="1233.0" departLane="random" departSpeed="10"/>
  <vehicle id="N_W_196" type="standard_car" route="N_W" depart="1233.0" departLane="random" departSpeed="10"/>
  <vehicle id="E_W_197" type="standard_car" route="E_W" depart="1234.0" departLane="random" departSpeed="10"/>
  <vehicle id="N_S_198" type="standard_car" route="N_S" depart="1236.0" departLane="random" departSpeed="10"/>
  <vehicle id="S_N_199" type="standard_car" route="S_N" depart="1238.0" departLane="random" departSpeed="10"/>
  <vehicle id="S_N_200" type="standard_car" route="S_N" depart="1240.0" departLane="random" departSpeed="10"/>
  <vehicle id="W_S_201" type="standard_car" route="W_S" depart="1241.0" departLane="random" departSpeed="10"/>
  <vehicle id="W_E_202" type="standard_car" route="W_E" depart="1245.0" departLane="random" departSpeed="10"/>
  <vehicle id="E_W_203" type="standard_car" route="E_W" depart="1247.0" departLane="random" departSpeed="10"/>
  <vehicle id="S_N_204" type="standard_car" route="S_N" depart="1250.0" departLane="random" departSpeed="10"/>
  <vehicle id="N_S_205" type="standard_car" route="N_S" depart="1254.0" departLane="random" departSpeed="10"/>
  <vehicle id="S_E_206" type="standard_car" route="S_E" depart="1255.0" departLane="random" departSpeed="10"/>
  <vehicle id="S_N_207" type="standard_car" route="S_N" depart="1255.0" departLane="random" departSpeed="10"/>
  <vehicle id="W_E_208" type="standard_car" route="W_E" depart="1281.0" departLane="random" departSpeed="10"/>
  <vehicle id="E_W_209" type="standard_car" route="E_W" depart="1297.0" departLane="random" departSpeed="10"/>
  <vehicle id="E_N_210" type="standard_car" route="E_N" depart="1297.0" departLane="random" departSpeed="10"/>
  <vehicle id="N_E_211" type="standard_car" route="N_E" depart="1299.0" departLane="random" departSpeed="10"/>
  <vehicle id="E_W_212" type="standard_car" route="E_W" depart="1299.0" departLane="random" departSpeed="10"/>
  <vehicle id="W_N_213" type="standard_car" route="W_N" depart="1306.0" departLane="random" departSpeed="10"/>
  <vehicle id="E_W_214" type="standard_car" route="E_W" depart="1311.0" departLane="random" departSpeed="10"/>
  <vehicle id="W_N_215" type="standard_car" route="W_N" depart="1312.0" departLane="random" departSpeed="10"/>
  <vehicle id="S_N_216" type="standard_car" route="S_N" depart="1314.0" departLane="random" departSpeed="10"/>
  <vehicle id="N_S_217" type="standard_car" route="N_S" depart="1315.0" departLane="random" departSpeed="10"/>
  <vehicle id="S_W_218" type="standard_car" route="S_W" depart="1317.0" departLane="random" departSpeed="10"/>
  <vehicle id="N_S_219" type="standard_car" route="N_S" depart="1322.0" departLane="random" departSpeed="10"/>
  <vehicle id="N_W_220" type="standard_car" route="N_W" depart="1341.0" departLane="random" departSpeed="10"/>
  <vehicle id="S_N_221" type="standard_car" route="S_N" depart="1343.0" departLane="random" departSpeed="10"/>
  <vehicle id="N_W_222" type="standard_car" route="N_W" depart="1356.0" departLane="random" departSpeed="10"/>
  <vehicle id="E_W_223" type="standard_car" route="E_W" depart="1369.0" departLane="random" departSpeed="10"/>
  <vehicle id="W_E_224" type="standard_car" route="W_E" depart="1372.0" departLane="random" departSpeed="10"/>
  <vehicle id="E_W_225" type="standard_car" route="E_W" depart="1376.0" departLane="random" departSpeed="10"/>
  <vehicle id="W_E_226" type="standard_car" route="W_E" depart="1376.0" departLane="random" departSpeed="10"/>
  <vehicle id="N_S_227" type="standard_car" route="N_S" depart="1379.0" departLane="random" departSpeed="10"/>
  <vehicle id="W_E_228" type="standard_car" route="W_E" depart="1380.0" departLane="random" departSpeed="10"/>
  <vehicle id="N_S_229" type="standard_car" route="N_S" depart="1381.0" departLane="random" departSpeed="10"/>
  <vehicle id="N_S_230" type="standard_car" route="N_S" depart="1381.0" departLane="random" departSpeed="10"/>
  <vehicle id="E_W_231" type="standard_car" route="E_W" depart="1382.0" departLane="random" departSpeed="10"/>
  <vehicle id="E_S_232" type="standard_car" route="E_S" depart="1392.0" departLane="random" departSpeed="10"/>
  <vehicle id="N_W_233" type="standard_car" route="N_W" depart="1400.0" departLane="random" departSpeed="10"/>
  <vehicle id="E_W_234" type="standard_car" route="E_W" depart="1401.0" departLane="random" departSpeed="10"/>
  <vehicle id="N_S_235" type="standard_car" route="N_S" depart="1410.0" departLane="random" departSpeed="10"/>
  <vehicle id="E_S_236" type="standard_car" route="E_S" depart="1410.0" departLane="random" departSpeed="10"/>
  <vehicle id="S_W_237" type="standard_car" route="S_W" depart="1418.0" departLane="random" departSpeed="10"/>
  <vehicle id="E_W_238" type="standard_car" route="E_W" depart="1419.0" departLane="random" departSpeed="10"/>
  <vehicle id="N_E_239" type="standard_car" route="N_E" depart="1419.0" departLane="random" departSpeed="10"/>
  <vehicle id="W_E_240" type="standard_car" route="W_E" depart="1422.0" departLane="random" departSpeed="10"/>
  <vehicle id="S_N_241" type="standard_car" route="S_N" depart="1423.0" departLane="random" departSpeed="10"/>
  <vehicle id="E_W_242" type="standard_car" route="E_W" depart="1426.0" departLane="random" departSpeed="10"/>
  <vehicle id="N_S_243" type="standard_car" route="N_S" depart="1427.0" departLane="random" departSpeed="10"/>
  <vehicle id="W_E_244" type="standard_car" route="W_E" depart="1433.0" departLane="random" departSpeed="10"/>
  <vehicle id="W_E_245" type="standard_car" route="W_E" depart="1434.0" departLane="random" departSpeed="10"/>
  <vehicle id="N_S_246" type="standard_car" route="N_S" depart="1435.0" departLane="random" departSpeed="10"/>
  <vehicle id="W_S_247" type="standard_car" route="W_S" depart="1445.0" departLane="random" departSpeed="10"/>
  <vehicle id="S_E_248" type="standard_car" route="S_E" depart="1466.0" departLane="random" departSpeed="10"/>
  <vehicle id="S_N_249" type="standard_car" route="S_N" depart="1470.0" departLane="random" departSpeed="10"/>
  <vehicle id="W_E_250" type="standard_car" route="W_E" depart="1472.0" departLane="random" departSpeed="10"/>
  <vehicle id="N_S_251" type="standard_car" route="N_S" depart="1481.0" departLane="random" departSpeed="10"/>
  <vehicle id="N_W_252" type="standard_car" route="N_W" depart="1484.0" departLane="random" departSpeed="10"/>
  <vehicle id="W_E_253" type="standard_car" route="W_E" depart="1486.0" departLane="random" departSpeed="10"/>
  <vehicle id="E_W_254" type="standard_car" route="E_W" depart="1492.0" departLane="random" departSpeed="10"/>
  <vehicle id="E_W_255" type="standard_car" route="E_W" depart="1493.0" departLane="random" departSpeed="10"/>
  <vehicle id="N_E_256" type="standard_car" route="N_E" depart="1503.0" departLane="random" departSpeed="10"/>
  <vehicle id="N_S_257" type="standard_car" route="N_S" depart="1505.0" departLane="random" departSpeed="10"/>
  <vehicle id="N_S_258" type="standard_car" route="N_S" depart="1507.0" departLane="random" departSpeed="10"/>
  <vehicle id="E_S_259" type="standard_car" route="E_S" depart="1516.0" departLane="random" departSpeed="10"/>
  <vehicle id="W_E_260" type="standard_car" route="W_E" depart="1520.0" departLane="random" departSpeed="10"/>
  <vehicle id="E_W_261" type="standard_car" route="E_W" depart="1529.0" departLane="random" departSpeed="10"/>
  <vehicle id="E_W_262" type="standard_car" route="E_W" depart="1533.0" departLane="random" departSpeed="10"/>
  <vehicle id="E_W_263" type="standard_car" route="E_W" depart="1533.0" departLane="random" departSpeed="10"/>
  <vehicle id="N_S_264" type="standard_car" route="N_S" depart="1537.0" departLane="random" departSpeed="10"/>
  <vehicle id="N_E_265" type="standard_car" route="N_E" depart="1537.0" departLane="random" departSpeed="10"/>